29
Al6 H2 O10                              
Al    0.031059    0.286485   10.036744
Al    0.029328    3.066344    9.207997
Al    2.423540    1.657025   13.804633
Al    0.024196    0.274718   12.621001
Al    0.026014    3.052081   12.401373
Al    2.430066    1.671643   10.308438
 O    1.614700    0.398703    9.175972
 O    1.732451    3.021178    9.184108
 O   -0.858138    1.609740    9.186884
 O    3.304066    0.262601   11.342960
 O   -0.685991    1.697327   13.491331
 O    0.783565    1.598251   11.346925
 O   -1.599411    3.144909   11.345199
 O    1.587157    0.163562   13.587462
 O    1.544580    3.114293   13.525179
 O    2.908563    1.906164   15.775899
 H   -1.268544    2.637813   15.587461
 H    2.243850    2.238136   16.411600
 O   -0.670062   -1.140096    9.184108
 O   -1.500961    0.262601   11.342960
 O    0.803103   -1.016366   11.345199
 O   -0.787814    4.559978    9.175972
 O    4.119036    1.697327   13.491331
 O   -0.857933   -1.046982   13.525179
 O   -0.815357    4.324837   13.587462
 O    0.901552    4.423875   11.342960
 O    3.946888    1.609740    9.186884
 O    3.205616    3.144909   11.345199
 H    3.536483    2.637813   15.587461
