115
Fe24 O36
Fe   -0.000005    2.966160    8.737237
Fe   -2.568778    7.415404    8.737237
Fe    5.137539    2.966160    8.737237
Fe    2.568767    7.415404    8.737237
Fe    0.000000    0.000000   10.487473
Fe   -5.137545    8.898488   10.487473
Fe   10.275089    0.000000   10.487473
Fe    5.137545    8.898488   10.487473
Fe   -2.568772    4.449244   10.487473
Fe    7.706317    4.449244   10.487473
Fe    5.137545    0.000000   10.487473
Fe    0.000000    8.898488   10.487473
Fe    2.568772    4.449244   10.487473
Fe   -0.000005    2.966160   12.793660
Fe   -2.568778    7.415404   12.793660
Fe    5.137539    2.966160   12.793660
Fe    2.568767    7.415404   12.793660
Fe    2.568772    1.483075   11.043401
Fe   -0.000000    5.932319   11.043401
Fe    7.706317    1.483075   11.043401
Fe    5.137545    5.932319   11.043401
Fe    0.000000    0.000000   13.349588
Fe   -5.137545    8.898488   13.349588
Fe   10.275089    0.000000   13.349588
Fe    5.137545    8.898488   13.349588
Fe   -2.568772    4.449244   13.349588
Fe    7.706317    4.449244   13.349588
Fe    5.137545    0.000000   13.349588
Fe    0.000000    8.898488   13.349588
Fe    2.568772    4.449244   13.349588
Fe    2.568772    1.483075   15.099824
Fe   -0.000000    5.932319   15.099824
Fe    7.706317    1.483075   15.099824
Fe    5.137545    5.932319   15.099824
 O    1.789756    3.099948   11.918530
 O   -0.779016    7.549192   11.918530
 O    6.927301    3.099948   11.918530
 O    4.358529    7.549192   11.918530
 O    1.558032    0.000000   11.918530
 O   -3.579512    8.898488   11.918530
 O   -1.010740    4.449244   11.918530
 O    6.695577    0.000000   11.918530
 O    1.558033    8.898488   11.918530
 O    4.126805    4.449244   11.918530
 O    3.347788    0.133780    9.612343
 O    0.779016    4.583024    9.612343
 O    8.485333    0.133780    9.612343
 O    5.916561    4.583024    9.612343
 O    1.010740    1.483075    9.612343
 O   -1.558032    5.932319    9.612343
 O    6.148284    1.483075    9.612343
 O    3.579512    5.932319    9.612343
 O    3.347783    2.832380    9.612343
 O    0.779011    7.281624    9.612343
 O    8.485329    2.832380    9.612343
 O    5.916556    7.281624    9.612343
 O    4.358529    1.349295   11.918530
 O    1.789756    5.798540   11.918530
 O   -0.779016    1.349295   11.918530
 O    9.496073    1.349295   11.918530
 O   -3.347789    5.798540   11.918530
 O    6.927300    5.798540   11.918530
 O    0.779011    1.616864   14.224718
 O   -1.789761    6.066108   14.224718
 O    5.916555    1.616864   14.224718
 O    3.347783    6.066108   14.224718
 O   -1.558037    2.966160   14.224718
 O   -4.126810    7.415404   14.224718
 O    3.579507    2.966160   14.224718
 O    1.010735    7.415404   14.224718
 O    0.779021    4.315455   14.224718
 O   -1.789751    8.764700   14.224718
 O    5.916566    4.315455   14.224718
 O    3.347794    8.764700   14.224718
 O   -1.789761    2.832380    9.612343
 O   -4.358533    7.281624    9.612343
 O   -1.789756    9.032268    9.612343
 O    3.347789    9.032268    9.612343
 O    0.779011   -1.616864    9.612343
 O   -0.779016   -1.349296   11.918530
 O   -1.789756    0.133780    9.612343
 O   -5.916561    7.549192   11.918530
 O   -6.927300    9.032268    9.612343
 O   -4.126804   10.381563    9.612343
 O   -5.916561   10.247784   11.918530
 O   11.054100   -1.616864    9.612343
 O    9.496073   -1.349296   11.918530
 O   11.285830    1.483075    9.612343
 O   11.833121    0.000000   11.918530
 O    6.148285   10.381563    9.612343
 O    6.695577    8.898488   11.918530
 O    4.358529   10.247784   11.918530
 O   -4.358528    4.583024    9.612343
 O   -3.347788    3.099948   11.918530
 O    8.717057    5.932319    9.612343
 O    9.264349    4.449244   11.918530
 O    5.916555   -1.616864    9.612343
 O    4.358528   -1.349296   11.918530
 O   -0.779016   10.247784   11.918530
 O    1.010740   10.381563    9.612343
 O   -1.789751   -0.133788   14.224718
 O    1.010735   -1.483084   14.224718
 O   -6.927296    8.764700   14.224718
 O   -4.358533   10.515352   14.224718
 O    8.485338   -0.133788   14.224718
 O   11.285824   -1.483084   14.224718
 O   11.054100    1.616864   14.224718
 O    6.148279    7.415404   14.224718
 O    5.916556   10.515352   14.224718
 O   -4.358523    4.315455   14.224718
 O    8.717052    2.966160   14.224718
 O    8.485328    6.066108   14.224718
 O    3.347793   -0.133788   14.224718
 O    6.148279   -1.483084   14.224718
 O    0.779011   10.515352   14.224718
