52
Al6 H2 O10
Al    0.000000    0.000000   10.261282
Al   -2.402514    4.161275   10.261282
Al    4.805027    0.000000   10.261282
Al    2.402513    4.161275   10.261282
Al   -0.000003    2.774185    9.363909
Al    2.402516    1.387090   13.752344
Al    0.000000    0.000000   12.854972
Al   -2.402514    4.161275   12.854972
Al    4.805027    0.000000   12.854972
Al    2.402513    4.161275   12.854972
Al   -0.000003    2.774185   12.624110
Al    2.402516    1.387090   10.492144
 O    1.581483    0.104964    9.387441
 O    1.702673    2.739188    9.387441
 O    3.923384    1.317123    9.387441
 O    3.280694    0.000000   11.558126
 O    0.878181    4.161275   11.558126
 O   -0.699840    1.422087   13.728812
 O    0.762166    1.320110   11.558126
 O   -1.640348    2.841164   11.558126
 O    3.164680    2.841164   11.558126
 O   -0.821031    4.056311   13.728812
 O    1.520870    2.844152   13.728812
 O    4.547091    0.425719   15.398846
 H    2.113914    3.633417   15.612855
 H    3.603768    0.693547   15.303653
 O   -0.699840   -1.422086    9.387441
 O   -0.881643    1.317123    9.387441
 O   -1.524333    0.000000   11.558126
 O    0.762166   -1.320111   11.558126
 O   -3.102354    2.739188    9.387441
 O   -3.284157    5.478397    9.387441
 O   -3.926847    4.161275   11.558126
 O   -0.821031    4.266239    9.387441
 O   -1.640348    5.481385   11.558126
 O    4.105187   -1.422086    9.387441
 O    5.567194   -1.320111   11.558126
 O    6.386510    0.104964    9.387441
 O    5.567193    1.320110   11.558126
 O    1.520870    5.478397    9.387441
 O    3.983996    4.266239    9.387441
 O    3.164679    5.481385   11.558126
 O    1.581483   -0.104964   13.728812
 O    4.105186    1.422087   13.728812
 O   -0.881643   -1.317123   13.728812
 O   -3.284157    2.844152   13.728812
 O   -3.102354    5.583362   13.728812
 O    3.923384   -1.317123   13.728812
 O    6.386510   -0.104964   13.728812
 O    3.983996    4.056311   13.728812
 O    1.702673    5.583362   13.728812
 H    4.516428   -0.527858   15.612855
